6    
Climbing Image - Chain 39 Image 8 Energy  -170.1453059011 (+25.931 kcal/mol) RMSGrad 0.028 eV/Ang
C       -0.2669719858   -1.1426170328   -1.0553075523
C       -0.6876653784   -0.1171201379   -0.4704637713
H       -1.5098692226    0.5573586758   -0.3512121262
H        0.6514692023   -1.7090257890   -1.0399455161
C        0.5057869215    1.0404702350    1.0592229952
N        1.3048803510    1.3704969845    1.8587577844
