6    
Climbing Image - Chain 50 Image 15 Energy  -170.1452106444 (+25.990 kcal/mol) RMSGrad 0.024 eV/Ang
C       -0.0484569208   -0.9300662358   -1.2542392875
C       -0.6460854044   -0.4799395350   -0.2486379032
H       -1.5423680287   -0.5148750993    0.3344972543
H        0.9148679013   -0.7649246139   -1.7117557073
C        0.2493002298    1.0250929924    1.1641328072
N        1.0709250766    1.6641114419    1.7155776517
