6    
Climbing Image - Chain 40 Image 8 Energy  -170.1453454807 (+25.944 kcal/mol) RMSGrad 0.025 eV/Ang
C       -0.2690210040   -1.1427222387   -1.0553112067
C       -0.6727083408   -0.0974929520   -0.4932855740
H       -1.4741234221    0.6069023983   -0.4121762375
H        0.6275184512   -1.7407953924   -0.9987989944
C        0.5026605607    1.0319236466    1.0682816362
N        1.2856737771    1.3421845395    1.8912903700
